examples/DynaSwing/SystemStudy_Bretagne_2INFBus/IIDMS/Etude_Bretagne_WithPYPosybl_AllGFM.xiidm
<?xml version="1.0" encoding="UTF-8"?>
<iidm:network xmlns:iidm="http://www.itesla_project.eu/schema/iidm/1_0" xmlns:apc="http://www.powsybl.org/schema/iidm/ext/active_power_control/1_1" xmlns:sa="http://www.itesla_project.eu/schema/iidm/ext/standby_automaton/1_0" xmlns:reft="http://www.powsybl.org/schema/iidm/ext/reference_terminals/1_0" id="Ete2030_GFM" caseDate="2025-04-10T15:13:00.000+02:00" forecastDistance="0" sourceFormat="NF">
    <iidm:substation id="0TREG" country="FR" tso="RTE">
        <iidm:voltageLevel id="0TREGP3" nominalV="63.0" topologyKind="BUS_BREAKER">
            <iidm:busBreakerTopology>
                <iidm:bus id="0TREGP31" v="65.1097651904301" angle="-1.5673552312156176"/>
            </iidm:busBreakerTopology>
        </iidm:voltageLevel>
    </iidm:substation>
    <iidm:substation id="MARTY" country="FR" tso="RTE">
        <iidm:voltageLevel id="1MARTP7" nominalV="380.0" topologyKind="BUS_BREAKER">
            <iidm:busBreakerTopology>
                <iidm:bus id="1MARTP71" v="408.43794800033766" angle="2.1205195115597966"/>
            </iidm:busBreakerTopology>
            <iidm:load id="MARTYY711" loadType="UNDEFINED" p0="0.07662471696377322" q0="69.98231829442108" bus="1MARTP71" connectableBus="1MARTP71" p="0.07662471696377322" q="69.98231829442108"/>
        </iidm:voltageLevel>
        <iidm:voltageLevel id="2MARTP7" nominalV="380.0" topologyKind="BUS_BREAKER">
            <iidm:busBreakerTopology>
                <iidm:bus id="2MARTP71" v="406.7534080552617" angle="2.487812572887601"/>
            </iidm:busBreakerTopology>
            <iidm:load id="MARTYY712" loadType="UNDEFINED" p0="0.07505854026552548" q0="69.243573799896" bus="2MARTP71" connectableBus="2MARTP71" p="0.07505854026552548" q="69.243573799896"/>
        </iidm:voltageLevel>
        <iidm:voltageLevel id="MARTYP6" nominalV="225.0" topologyKind="BUS_BREAKER">
            <iidm:busBreakerTopology>
                <iidm:bus id="MARTYP61" v="239.2176167909299" angle="3.316512327624383"/>
            </iidm:busBreakerTopology>
            <iidm:generator id="MARTYP6-GFM" energySource="WIND" minP="0.0" maxP="250.0" voltageRegulatorOn="false" targetP="0.10000000149011612" targetQ="0.0" bus="MARTYP61" connectableBus="MARTYP61" p="-0.10000000149011613" q="-0.0">
                <iidm:reactiveCapabilityCurve>
                    <iidm:point p="0.0" minQ="-250.0" maxQ="250.0"/>
                    <iidm:point p="250.0" minQ="-250.0" maxQ="250.0"/>
                </iidm:reactiveCapabilityCurve>
            </iidm:generator>
            <iidm:shunt id="MARTY6REAC.1" bPerSection="-0.0015802469570189714" maximumSectionCount="1" currentSectionCount="1" bus="MARTYP61" connectableBus="MARTYP61" q="90.4297398615978"/>
            <iidm:shunt id="MARTY6REAC" bPerSection="-0.0015802469570189714" maximumSectionCount="1" currentSectionCount="1" bus="MARTYP61" connectableBus="MARTYP61" q="90.4297398615978"/>
        </iidm:voltageLevel>
        <iidm:voltageLevel id="MARTYP7" nominalV="380.0" topologyKind="BUS_BREAKER">
            <iidm:busBreakerTopology>
                <iidm:bus id="MARTYP71" v="400.00059755465827" angle="6.331881368416619"/>
            </iidm:busBreakerTopology>
            <iidm:load id="CELTIC" loadType="UNDEFINED" p0="-688.048017231087" q0="207.89536742316724" bus="MARTYP71" connectableBus="MARTYP71" p="-688.048017231087" q="207.89536742316724"/>
        </iidm:voltageLevel>
        <iidm:twoWindingsTransformer id="MARTYY761" r="0.21000027656555176" x="-16.200000762939453" g="0.0" b="0.0" ratedU1="225.0" ratedU2="380.0" voltageLevelId1="MARTYP6" bus1="MARTYP61" connectableBus1="MARTYP61" voltageLevelId2="1MARTP7" bus2="1MARTP71" connectableBus2="1MARTP71" p1="-213.7320917339184" q1="134.11153177883713" p2="213.81447931273647" q2="-140.46713693104036">
            <iidm:ratioTapChanger lowTapPosition="0" tapPosition="0" loadTapChangingCapabilities="false">
                <iidm:step r="0.0" x="0.0" g="0.0" b="0.0" rho="0.9971100091934204"/>
                <iidm:step r="0.0" x="0.0" g="0.0" b="0.0" rho="0.9572399854660034"/>
                <iidm:step r="0.0" x="0.0" g="0.0" b="0.0" rho="0.9147999882698059"/>
            </iidm:ratioTapChanger>
        </iidm:twoWindingsTransformer>
        <iidm:twoWindingsTransformer id="MARTYY771" r="0.27999991178512573" x="55.99997329711914" g="0.0" b="0.0" ratedU1="380.0" ratedU2="380.0" voltageLevelId1="MARTYP7" bus1="MARTYP71" connectableBus1="MARTYP71" voltageLevelId2="1MARTP7" bus2="1MARTP71" connectableBus2="1MARTP71" p1="213.97623031392635" q1="-53.45956436635605" p2="-213.89110402880124" q2="70.48481863697596">
            <iidm:ratioTapChanger lowTapPosition="0" tapPosition="0" loadTapChangingCapabilities="false">
                <iidm:step r="0.0" x="0.0" g="0.0" b="0.0" rho="1.0"/>
            </iidm:ratioTapChanger>
        </iidm:twoWindingsTransformer>
        <iidm:twoWindingsTransformer id="MARTYY762" r="0.1999993622303009" x="-11.099998474121094" g="0.0" b="0.0" ratedU1="225.0" ratedU2="380.0" voltageLevelId1="MARTYP6" bus1="MARTYP61" connectableBus1="MARTYP61" voltageLevelId2="2MARTP7" bus2="2MARTP71" connectableBus2="2MARTP71" p1="-215.9336216231951" q1="127.86022585347168" p2="216.0111413606088" q2="-132.1625844084576">
            <iidm:ratioTapChanger lowTapPosition="0" tapPosition="0" loadTapChangingCapabilities="false">
                <iidm:step r="0.0" x="0.0" g="0.0" b="0.0" rho="0.9976999759674072"/>
                <iidm:step r="0.0" x="0.0" g="0.0" b="0.0" rho="0.9572399854660034"/>
                <iidm:step r="0.0" x="0.0" g="0.0" b="0.0" rho="0.9147999882698059"/>
            </iidm:ratioTapChanger>
        </iidm:twoWindingsTransformer>
        <iidm:twoWindingsTransformer id="MARTYY772" r="0.27000007033348083" x="50.400001525878906" g="0.0" b="0.0" ratedU1="380.0" ratedU2="380.0" voltageLevelId1="MARTYP7" bus1="MARTYP71" connectableBus1="MARTYP71" voltageLevelId2="2MARTP7" bus2="2MARTP71" connectableBus2="2MARTP71" p1="216.16886048663795" q1="-47.48903797686573" p2="-216.0861998999363" q2="62.9190106089197">
            <iidm:ratioTapChanger lowTapPosition="0" tapPosition="0" loadTapChangingCapabilities="false">
                <iidm:step r="0.0" x="0.0" g="0.0" b="0.0" rho="1.0"/>
            </iidm:ratioTapChanger>
        </iidm:twoWindingsTransformer>
    </iidm:substation>
    <iidm:substation id="DOMLO" country="FR" tso="RTE">
        <iidm:voltageLevel id="4DOMLP7" nominalV="380.0" topologyKind="BUS_BREAKER">
            <iidm:busBreakerTopology>
                <iidm:bus id="4DOMLP71" v="404.52420665030354" angle="-2.322675293416764"/>
            </iidm:busBreakerTopology>
            <iidm:load id="DOMLOY714" loadType="UNDEFINED" p0="0.074418621749241" q0="68.56990664357254" bus="4DOMLP71" connectableBus="4DOMLP71" p="0.074418621749241" q="68.56990664357254"/>
        </iidm:voltageLevel>
        <iidm:voltageLevel id="5DOMLP7" nominalV="380.0" topologyKind="BUS_BREAKER">
            <iidm:busBreakerTopology>
                <iidm:bus id="5DOMLP71" v="405.3149701181153" angle="-2.217022009808095"/>
            </iidm:busBreakerTopology>
            <iidm:load id="DOMLOY715" loadType="UNDEFINED" p0="0.14445267303907466" q0="68.75447631720505" bus="5DOMLP71" connectableBus="5DOMLP71" p="0.14445267303907466" q="68.75447631720505"/>
        </iidm:voltageLevel>
        <iidm:voltageLevel id="DOMLOP4" nominalV="90.0" topologyKind="BUS_BREAKER">
            <iidm:busBreakerTopology>
                <iidm:bus id="DOMLOP41" v="94.09707189986904" angle="-2.624758428178834"/>
            </iidm:busBreakerTopology>
            <iidm:load id="DOMLOL41VITRE" loadType="UNDEFINED" p0="1.1865675227623294" q0="-13.472432035439741" bus="DOMLOP41" connectableBus="DOMLOP41" p="1.1865675227623294" q="-13.472432035439741"/>
            <iidm:shunt id="DOMLO4COND.11" bPerSection="0.0037037034053355455" maximumSectionCount="1" currentSectionCount="1" connectableBus="DOMLOP41"/>
        </iidm:voltageLevel>
        <iidm:voltageLevel id="DOMLOP6" nominalV="225.0" topologyKind="BUS_BREAKER">
            <iidm:busBreakerTopology>
                <iidm:bus id="DOMLOP61" v="238.96660241536327" angle="-1.9080348173763524"/>
            </iidm:busBreakerTopology>
            <iidm:shunt id="DOMLO6COND.11" bPerSection="0.0015802469570189714" maximumSectionCount="1" currentSectionCount="1" connectableBus="DOMLOP61"/>
            <iidm:shunt id="DOMLO6COND.21" bPerSection="0.0015802469570189714" maximumSectionCount="1" currentSectionCount="1" connectableBus="DOMLOP61">
                <iidm:property name="VECTCodeOITransfoDistrib" value="F.COM-Y412"/>
            </iidm:shunt>
            <iidm:staticVarCompensator id="CSPDO.TC1" bMin="-0.004938271827995777" bMax="0.004938271827995777" voltageSetPoint="235.0" reactivePowerSetPoint="0.0" regulationMode="VOLTAGE" bus="DOMLOP61" connectableBus="DOMLOP61" p="0.0" q="281.99693869227934"/>
        </iidm:voltageLevel>
        <iidm:voltageLevel id="DOMLOP7" nominalV="380.0" topologyKind="BUS_BREAKER">
            <iidm:busBreakerTopology>
                <iidm:bus id="DOMLOP71" v="405.66329190302633" angle="-0.351091620405977"/>
            </iidm:busBreakerTopology>
            <iidm:load id="DOMLOL71OUDON" loadType="UNDEFINED" p0="0.0" q0="0.0" connectableBus="DOMLOP71"/>
            <iidm:load id="DOMLOL72OUDON" loadType="UNDEFINED" p0="-251.1584358538632" q0="-148.04915840166615" bus="DOMLOP71" connectableBus="DOMLOP71" p="-251.1584358538632" q="-148.04915840166615"/>
        </iidm:voltageLevel>
        <iidm:twoWindingsTransformer id="DOMLOY764" r="0.22999998927116394" x="-10.300002098083496" g="0.0" b="0.0" ratedU1="225.0" ratedU2="380.0" voltageLevelId1="DOMLOP6" bus1="DOMLOP61" connectableBus1="DOMLOP61" voltageLevelId2="4DOMLP7" bus2="4DOMLP71" connectableBus2="4DOMLP71" p1="-115.86457239580923" q1="60.61327378057626" p2="115.88879927869216" q2="-61.69821706786025">
            <iidm:ratioTapChanger lowTapPosition="0" tapPosition="0" loadTapChangingCapabilities="false">
                <iidm:step r="0.0" x="0.0" g="0.0" b="0.0" rho="0.9982900023460388"/>
                <iidm:step r="0.0" x="0.0" g="0.0" b="0.0" rho="0.9572399854660034"/>
                <iidm:step r="0.0" x="0.0" g="0.0" b="0.0" rho="0.9142100214958191"/>
            </iidm:ratioTapChanger>
        </iidm:twoWindingsTransformer>
        <iidm:twoWindingsTransformer id="DOMLOY774" r="0.25" x="48.70000076293945" g="0.0" b="0.0" ratedU1="380.0" ratedU2="380.0" voltageLevelId1="DOMLOP7" bus1="DOMLOP71" connectableBus1="DOMLOP71" voltageLevelId2="4DOMLP7" bus2="4DOMLP71" connectableBus2="4DOMLP71" p1="115.98383435017543" q1="10.88777356680147" p2="-115.9632179028937" q2="-6.871689573442335">
            <iidm:ratioTapChanger lowTapPosition="0" tapPosition="0" loadTapChangingCapabilities="false">
                <iidm:step r="0.0" x="0.0" g="0.0" b="0.0" rho="1.0"/>
            </iidm:ratioTapChanger>
        </iidm:twoWindingsTransformer>
        <iidm:twoWindingsTransformer id="DOMLOY765" r="0.39999935030937195" x="-8.100001335144043" g="0.0" b="0.0" ratedU1="225.0" ratedU2="380.0" voltageLevelId1="DOMLOP6" bus1="DOMLOP61" connectableBus1="DOMLOP61" voltageLevelId2="5DOMLP7" bus2="5DOMLP71" connectableBus2="5DOMLP71" p1="-112.28815798920331" q1="66.98374619932218" p2="112.33008465111472" q2="-67.83276262214657">
            <iidm:ratioTapChanger lowTapPosition="0" tapPosition="0" loadTapChangingCapabilities="false">
                <iidm:step r="0.0" x="0.0" g="0.0" b="0.0" rho="1.0006599426269531"/>
                <iidm:step r="0.0" x="0.0" g="0.0" b="0.0" rho="0.9572399854660034"/>
                <iidm:step r="0.0" x="0.0" g="0.0" b="0.0" rho="0.9159899950027466"/>
            </iidm:ratioTapChanger>
        </iidm:twoWindingsTransformer>
        <iidm:twoWindingsTransformer id="DOMLOY775" r="0.09000000357627869" x="47.59999465942383" g="0.0" b="0.0" ratedU1="380.0" ratedU2="380.0" voltageLevelId1="DOMLOP7" bus1="DOMLOP71" connectableBus1="DOMLOP71" voltageLevelId2="5DOMLP7" bus2="5DOMLP71" connectableBus2="5DOMLP71" p1="112.48146830997014" q1="4.587433026756665" p2="-112.47453732698342" q2="-0.9217136930224905">
            <iidm:ratioTapChanger lowTapPosition="0" tapPosition="0" loadTapChangingCapabilities="false">
                <iidm:step r="0.0" x="0.0" g="0.0" b="0.0" rho="1.0"/>
            </iidm:ratioTapChanger>
        </iidm:twoWindingsTransformer>
        <iidm:twoWindingsTransformer id="DOMLOY641" r="1.600000023841858" x="58.29999923706055" g="0.0" b="0.0" ratedU1="90.0" ratedU2="225.0" voltageLevelId1="DOMLOP4" bus1="DOMLOP41" connectableBus1="DOMLOP41" voltageLevelId2="DOMLOP6" bus2="DOMLOP61" connectableBus2="DOMLOP61" p1="-11.62099671882661" q1="40.663617732617496" p2="11.667369981596625" q2="-38.97389201772681">
            <iidm:ratioTapChanger regulating="true" lowTapPosition="0" tapPosition="0" loadTapChangingCapabilities="true" targetV="94.50000762939453">
                <iidm:terminalRef id="DOMLOY641" side="ONE"/>
                <iidm:step r="0.0" x="0.0" g="0.0" b="0.0" rho="1.055999994277954"/>
                <iidm:step r="0.0" x="0.0" g="0.0" b="0.0" rho="1.0467100143432617"/>
                <iidm:step r="0.0" x="0.0" g="0.0" b="0.0" rho="1.0374200344085693"/>
                <iidm:step r="0.0" x="0.0" g="0.0" b="0.0" rho="1.028130054473877"/>
                <iidm:step r="0.0" x="0.0" g="0.0" b="0.0" rho="1.018839955329895"/>
                <iidm:step r="0.0" x="0.0" g="0.0" b="0.0" rho="1.009559988975525"/>
                <iidm:step r="0.0" x="0.0" g="0.0" b="0.0" rho="1.0002700090408325"/>
                <iidm:step r="0.0" x="0.0" g="0.0" b="0.0" rho="0.9909800291061401"/>
                <iidm:step r="0.0" x="0.0" g="0.0" b="0.0" rho="0.981689989566803"/>
                <iidm:step r="0.0" x="0.0" g="0.0" b="0.0" rho="0.9724000096321106"/>
                <iidm:step r="0.0" x="0.0" g="0.0" b="0.0" rho="0.9631100296974182"/>
                <iidm:step r="0.0" x="0.0" g="0.0" b="0.0" rho="0.953819990158081"/>
                <iidm:step r="0.0" x="0.0" g="0.0" b="0.0" rho="0.9445300102233887"/>
                <iidm:step r="0.0" x="0.0" g="0.0" b="0.0" rho="0.9352399706840515"/>
                <iidm:step r="0.0" x="0.0" g="0.0" b="0.0" rho="0.9259600043296814"/>
                <iidm:step r="0.0" x="0.0" g="0.0" b="0.0" rho="0.916670024394989"/>
                <iidm:step r="0.0" x="0.0" g="0.0" b="0.0" rho="0.9075599908828735"/>
                <iidm:step r="0.0" x="0.0" g="0.0" b="0.0" rho="0.8984400033950806"/>
                <iidm:step r="0.0" x="0.0" g="0.0" b="0.0" rho="0.8893300294876099"/>
                <iidm:step r="0.0" x="0.0" g="0.0" b="0.0" rho="0.8802199959754944"/>
                <iidm:step r="0.0" x="0.0" g="0.0" b="0.0" rho="0.8711100220680237"/>
                <iidm:step r="0.0" x="0.0" g="0.0" b="0.0" rho="0.8619999885559082"/>
                <iidm:step r="0.0" x="0.0" g="0.0" b="0.0" rho="0.8528900146484375"/>
                <iidm:step r="0.0" x="0.0" g="0.0" b="0.0" rho="0.843779981136322"/>
                <iidm:step r="0.0" x="0.0" g="0.0" b="0.0" rho="0.8346700072288513"/>
                <iidm:step r="0.0" x="0.0" g="0.0" b="0.0" rho="0.8255599737167358"/>
                <iidm:step r="0.0" x="0.0" g="0.0" b="0.0" rho="0.8164399862289429"/>
                <iidm:step r="0.0" x="0.0" g="0.0" b="0.0" rho="0.8073300123214722"/>
                <iidm:step r="0.0" x="0.0" g="0.0" b="0.0" rho="0.7982199788093567"/>
                <iidm:step r="0.0" x="0.0" g="0.0" b="0.0" rho="0.789110004901886"/>
                <iidm:step r="0.0" x="0.0" g="0.0" b="0.0" rho="0.7799999713897705"/>
            </iidm:ratioTapChanger>
        </iidm:twoWindingsTransformer>
        <iidm:twoWindingsTransformer id="DOMLOY642" r="1.5399982929229736" x="59.599998474121094" g="0.0" b="0.0" ratedU1="90.0" ratedU2="225.0" voltageLevelId1="DOMLOP4" bus1="DOMLOP41" connectableBus1="DOMLOP41" voltageLevelId2="DOMLOP6" bus2="DOMLOP61" connectableBus2="DOMLOP61" p1="-10.545024420981878" q1="99.65007156264318" p2="10.771004347982057" q2="-90.90434543665634">
            <iidm:ratioTapChanger regulating="true" lowTapPosition="0" tapPosition="0" loadTapChangingCapabilities="true" targetV="94.50000762939453">
                <iidm:terminalRef id="DOMLOY642" side="ONE"/>
                <iidm:step r="0.0" x="0.0" g="0.0" b="0.0" rho="1.1119999885559082"/>
                <iidm:step r="0.0" x="0.0" g="0.0" b="0.0" rho="1.0999799966812134"/>
                <iidm:step r="0.0" x="0.0" g="0.0" b="0.0" rho="1.0879600048065186"/>
                <iidm:step r="0.0" x="0.0" g="0.0" b="0.0" rho="1.0759400129318237"/>
                <iidm:step r="0.0" x="0.0" g="0.0" b="0.0" rho="1.0639100074768066"/>
                <iidm:step r="0.0" x="0.0" g="0.0" b="0.0" rho="1.0518900156021118"/>
                <iidm:step r="0.0" x="0.0" g="0.0" b="0.0" rho="1.039870023727417"/>
                <iidm:step r="0.0" x="0.0" g="0.0" b="0.0" rho="1.0278500318527222"/>
                <iidm:step r="0.0" x="0.0" g="0.0" b="0.0" rho="1.0158300399780273"/>
                <iidm:step r="0.0" x="0.0" g="0.0" b="0.0" rho="1.0038100481033325"/>
                <iidm:step r="0.0" x="0.0" g="0.0" b="0.0" rho="0.9917799830436707"/>
                <iidm:step r="0.0" x="0.0" g="0.0" b="0.0" rho="0.9797599911689758"/>
                <iidm:step r="0.0" x="0.0" g="0.0" b="0.0" rho="0.967739999294281"/>
                <iidm:step r="0.0" x="0.0" g="0.0" b="0.0" rho="0.9557600021362305"/>
                <iidm:step r="0.0" x="0.0" g="0.0" b="0.0" rho="0.9437800049781799"/>
                <iidm:step r="0.0" x="0.0" g="0.0" b="0.0" rho="0.9318100214004517"/>
                <iidm:step r="0.0" x="0.0" g="0.0" b="0.0" rho="0.9198300242424011"/>
                <iidm:step r="0.0" x="0.0" g="0.0" b="0.0" rho="0.9078500270843506"/>
                <iidm:step r="0.0" x="0.0" g="0.0" b="0.0" rho="0.8958699703216553"/>
                <iidm:step r="0.0" x="0.0" g="0.0" b="0.0" rho="0.8838899731636047"/>
                <iidm:step r="0.0" x="0.0" g="0.0" b="0.0" rho="0.8719099760055542"/>
                <iidm:step r="0.0" x="0.0" g="0.0" b="0.0" rho="0.8599399924278259"/>
                <iidm:step r="0.0" x="0.0" g="0.0" b="0.0" rho="0.8479599952697754"/>
                <iidm:step r="0.0" x="0.0" g="0.0" b="0.0" rho="0.8359799981117249"/>
                <iidm:step r="0.0" x="0.0" g="0.0" b="0.0" rho="0.8240000009536743"/>
            </iidm:ratioTapChanger>
        </iidm:twoWindingsTransformer>
        <iidm:twoWindingsTransformer id="DOMLOY643" r="1.970000147819519" x="56.400001525878906" g="0.0" b="0.0" ratedU1="90.0" ratedU2="225.0" voltageLevelId1="DOMLOP4" bus1="DOMLOP41" connectableBus1="DOMLOP41" voltageLevelId2="DOMLOP6" bus2="DOMLOP61" connectableBus2="DOMLOP61" p1="-10.18372350070371" q1="105.37174768598658" p2="10.506357754785196" q2="-96.13490958593064">
            <iidm:ratioTapChanger regulating="true" lowTapPosition="0" tapPosition="0" loadTapChangingCapabilities="true" targetV="94.50000762939453">
                <iidm:terminalRef id="DOMLOY643" side="ONE"/>
                <iidm:step r="0.0" x="0.0" g="0.0" b="0.0" rho="1.1119999885559082"/>
                <iidm:step r="0.0" x="0.0" g="0.0" b="0.0" rho="1.0999799966812134"/>
                <iidm:step r="0.0" x="0.0" g="0.0" b="0.0" rho="1.0879600048065186"/>
                <iidm:step r="0.0" x="0.0" g="0.0" b="0.0" rho="1.0759400129318237"/>
                <iidm:step r="0.0" x="0.0" g="0.0" b="0.0" rho="1.0639100074768066"/>
                <iidm:step r="0.0" x="0.0" g="0.0" b="0.0" rho="1.0518900156021118"/>
                <iidm:step r="0.0" x="0.0" g="0.0" b="0.0" rho="1.039870023727417"/>
                <iidm:step r="0.0" x="0.0" g="0.0" b="0.0" rho="1.0278500318527222"/>
                <iidm:step r="0.0" x="0.0" g="0.0" b="0.0" rho="1.0158300399780273"/>
                <iidm:step r="0.0" x="0.0" g="0.0" b="0.0" rho="1.0038100481033325"/>
                <iidm:step r="0.0" x="0.0" g="0.0" b="0.0" rho="0.9917799830436707"/>
                <iidm:step r="0.0" x="0.0" g="0.0" b="0.0" rho="0.9797599911689758"/>
                <iidm:step r="0.0" x="0.0" g="0.0" b="0.0" rho="0.967739999294281"/>
                <iidm:step r="0.0" x="0.0" g="0.0" b="0.0" rho="0.9557600021362305"/>
                <iidm:step r="0.0" x="0.0" g="0.0" b="0.0" rho="0.9437800049781799"/>
                <iidm:step r="0.0" x="0.0" g="0.0" b="0.0" rho="0.9318100214004517"/>
                <iidm:step r="0.0" x="0.0" g="0.0" b="0.0" rho="0.9198300242424011"/>
                <iidm:step r="0.0" x="0.0" g="0.0" b="0.0" rho="0.9078500270843506"/>
                <iidm:step r="0.0" x="0.0" g="0.0" b="0.0" rho="0.8958699703216553"/>
                <iidm:step r="0.0" x="0.0" g="0.0" b="0.0" rho="0.8838899731636047"/>
                <iidm:step r="0.0" x="0.0" g="0.0" b="0.0" rho="0.8719099760055542"/>
                <iidm:step r="0.0" x="0.0" g="0.0" b="0.0" rho="0.8599399924278259"/>
                <iidm:step r="0.0" x="0.0" g="0.0" b="0.0" rho="0.8479599952697754"/>
                <iidm:step r="0.0" x="0.0" g="0.0" b="0.0" rho="0.8359799981117249"/>
                <iidm:step r="0.0" x="0.0" g="0.0" b="0.0" rho="0.8240000009536743"/>
            </iidm:ratioTapChanger>
        </iidm:twoWindingsTransformer>
        <iidm:twoWindingsTransformer id="DOMLOY741" r="1.9579999446868896" x="144.02000427246094" g="0.0" b="0.0" ratedU1="90.0" ratedU2="380.0" voltageLevelId1="DOMLOP4" bus1="DOMLOP41" connectableBus1="DOMLOP41" voltageLevelId2="DOMLOP7" bus2="DOMLOP71" connectableBus2="DOMLOP71" p1="-39.68375763245762" q1="-162.4155417129304" p2="40.17040912809827" q2="198.21102305170598">
            <iidm:ratioTapChanger regulating="true" lowTapPosition="0" tapPosition="24" loadTapChangingCapabilities="true" targetV="94.50000762939453">
                <iidm:terminalRef id="DOMLOY741" side="ONE"/>
                <iidm:step r="0.0" x="0.0" g="0.0" b="0.0" rho="1.0743199586868286"/>
                <iidm:step r="0.0" x="0.0" g="0.0" b="0.0" rho="1.0647200345993042"/>
                <iidm:step r="0.0" x="0.0" g="0.0" b="0.0" rho="1.0551300048828125"/>
                <iidm:step r="0.0" x="0.0" g="0.0" b="0.0" rho="1.0455399751663208"/>
                <iidm:step r="0.0" x="0.0" g="0.0" b="0.0" rho="1.035949945449829"/>
                <iidm:step r="0.0" x="0.0" g="0.0" b="0.0" rho="1.026360034942627"/>
                <iidm:step r="0.0" x="0.0" g="0.0" b="0.0" rho="1.016759991645813"/>
                <iidm:step r="0.0" x="0.0" g="0.0" b="0.0" rho="1.0071699619293213"/>
                <iidm:step r="0.0" x="0.0" g="0.0" b="0.0" rho="0.9975799918174744"/>
                <iidm:step r="0.0" x="0.0" g="0.0" b="0.0" rho="0.9879900217056274"/>
                <iidm:step r="0.0" x="0.0" g="0.0" b="0.0" rho="0.9783899784088135"/>
                <iidm:step r="0.0" x="0.0" g="0.0" b="0.0" rho="0.9688000082969666"/>
                <iidm:step r="0.0" x="0.0" g="0.0" b="0.0" rho="0.9592099785804749"/>
                <iidm:step r="0.0" x="0.0" g="0.0" b="0.0" rho="0.9496200084686279"/>
                <iidm:step r="0.0" x="0.0" g="0.0" b="0.0" rho="0.9400299787521362"/>
                <iidm:step r="0.0" x="0.0" g="0.0" b="0.0" rho="0.930429995059967"/>
                <iidm:step r="0.0" x="0.0" g="0.0" b="0.0" rho="0.9208400249481201"/>
                <iidm:step r="0.0" x="0.0" g="0.0" b="0.0" rho="0.9112499952316284"/>
                <iidm:step r="0.0" x="0.0" g="0.0" b="0.0" rho="0.9016600251197815"/>
                <iidm:step r="0.0" x="0.0" g="0.0" b="0.0" rho="0.8920699954032898"/>
                <iidm:step r="0.0" x="0.0" g="0.0" b="0.0" rho="0.8824700117111206"/>
                <iidm:step r="0.0" x="0.0" g="0.0" b="0.0" rho="0.8728799819946289"/>
                <iidm:step r="0.0" x="0.0" g="0.0" b="0.0" rho="0.863290011882782"/>
                <iidm:step r="0.0" x="0.0" g="0.0" b="0.0" rho="0.8536999821662903"/>
                <iidm:step r="0.0" x="0.0" g="0.0" b="0.0" rho="0.8441100120544434"/>
            </iidm:ratioTapChanger>
        </iidm:twoWindingsTransformer>
    </iidm:substation>
    <iidm:substation id="DDDDDP7_site" name="undefined" country="FR" tso="RTE">
        <iidm:voltageLevel id="DDDDDP7" nominalV="380.0" topologyKind="BUS_BREAKER">
            <iidm:busBreakerTopology>
                <iidm:bus id="DDDDDP71" v="405.66329190302633" angle="-0.351091620405977"/>
            </iidm:busBreakerTopology>
            <iidm:generator id="INF" energySource="OTHER" minP="-9998.0" maxP="9999.0" voltageRegulatorOn="false" targetP="0.0" targetV="405.66" targetQ="0.0" bus="DDDDDP71" connectableBus="DDDDDP71" p="-0.0" q="-0.0">
                <iidm:reactiveCapabilityCurve>
                    <iidm:point p="-9998.0" minQ="-9998.0" maxQ="9999.0"/>
                    <iidm:point p="9999.0" minQ="-9998.0" maxQ="9999.0"/>
                </iidm:reactiveCapabilityCurve>
            </iidm:generator>
        </iidm:voltageLevel>
    </iidm:substation>
    <iidm:substation id="EEEEEP7_site" name="undefined" country="FR" tso="RTE">
        <iidm:voltageLevel id="EEEEEP7" nominalV="380.0" topologyKind="BUS_BREAKER">
            <iidm:busBreakerTopology>
                <iidm:bus id="EEEEEP71" v="404.5028940737202" angle="-0.36022422830754686"/>
            </iidm:busBreakerTopology>
            <iidm:generator id="INF1" energySource="OTHER" minP="-9998.0" maxP="9999.0" voltageRegulatorOn="false" targetP="0.0" targetV="405.66" targetQ="0.0" bus="EEEEEP71" connectableBus="EEEEEP71" p="-0.0" q="-0.0">
                <iidm:reactiveCapabilityCurve>
                    <iidm:point p="-9998.0" minQ="-9998.0" maxQ="9999.0"/>
                    <iidm:point p="9999.0" minQ="-9998.0" maxQ="9999.0"/>
                </iidm:reactiveCapabilityCurve>
            </iidm:generator>
        </iidm:voltageLevel>
    </iidm:substation>
    <iidm:substation id="ABERS" country="FR" tso="RTE">
        <iidm:voltageLevel id="ABERSP3" nominalV="63.0" topologyKind="BUS_BREAKER">
            <iidm:busBreakerTopology>
                <iidm:bus id="ABERSP31" v="65.75716466200083" angle="1.5525570365980768"/>
            </iidm:busBreakerTopology>
            <iidm:generator id="ABERSP3_COGE_ES" energySource="OTHER" minP="0.0" maxP="6.0" voltageRegulatorOn="false" targetP="0.6000000238418579" targetQ="0.0" bus="ABERSP31" connectableBus="ABERSP31" p="-0.6000000238418579" q="-0.0">
                <iidm:reactiveCapabilityCurve>
                    <iidm:point p="0.0" minQ="-0.009999999776482582" maxQ="0.009999999776482582"/>
                    <iidm:point p="6.0" minQ="-0.009999999776482582" maxQ="0.009999999776482582"/>
                </iidm:reactiveCapabilityCurve>
            </iidm:generator>
            <iidm:generator id="ABERSP3_EOL" energySource="SOLAR" minP="0.0" maxP="12.269146919250488" voltageRegulatorOn="false" targetP="1.840372085571289" targetQ="0.0" bus="ABERSP31" connectableBus="ABERSP31" p="-1.840372085571289" q="-0.0">
                <iidm:reactiveCapabilityCurve>
                    <iidm:point p="0.0" minQ="0.0" maxQ="0.0"/>
                    <iidm:point p="12.269146919250488" minQ="0.0" maxQ="0.0"/>
                </iidm:reactiveCapabilityCurve>
            </iidm:generator>
            <iidm:generator id="ABERSP3_PV" energySource="SOLAR" minP="0.0" maxP="10.050138473510742" voltageRegulatorOn="false" targetP="1.3065179586410522" targetQ="0.0" bus="ABERSP31" connectableBus="ABERSP31" p="-1.3065179586410522" q="-0.0">
                <iidm:reactiveCapabilityCurve>
                    <iidm:point p="0.0" minQ="0.0" maxQ="0.0"/>
                    <iidm:point p="10.050138473510742" minQ="0.0" maxQ="0.0"/>
                </iidm:reactiveCapabilityCurve>
            </iidm:generator>
            <iidm:load id="ABERS3311" loadType="UNDEFINED" p0="2.899995447109729" q0="-9.299970377791276" bus="ABERSP31" connectableBus="ABERSP31" p="2.899995447109729" q="-9.299970377791276">
                <iidm:property name="VECTCodeOITransfoDistrib" value="ABERS-Y311"/>
            </iidm:load>
        </iidm:voltageLevel>
    </iidm:substation>
    <iidm:substation id="ALLAI" country="FR" tso="RTE">
        <iidm:voltageLevel id="ALLAIP3" nominalV="63.0" topologyKind="BUS_BREAKER">
            <iidm:busBreakerTopology>
                <iidm:bus id="ALLAIP31" v="67.73523370595191" angle="-1.1350744265607722"/>
            </iidm:busBreakerTopology>
            <iidm:generator id="ALLAIP3_EOL" energySource="SOLAR" minP="0.0" maxP="10.5250825881958" voltageRegulatorOn="false" targetP="1.578762412071228" targetQ="0.0" bus="ALLAIP31" connectableBus="ALLAIP31" p="-1.578762412071228" q="-0.0">
                <iidm:reactiveCapabilityCurve>
                    <iidm:point p="0.0" minQ="0.0" maxQ="0.0"/>
                    <iidm:point p="10.5250825881958" minQ="0.0" maxQ="0.0"/>
                </iidm:reactiveCapabilityCurve>
            </iidm:generator>
            <iidm:generator id="ALLAIP3_PV" energySource="SOLAR" minP="0.0" maxP="6.823605060577393" voltageRegulatorOn="false" targetP="0.8870686292648315" targetQ="0.0" bus="ALLAIP31" connectableBus="ALLAIP31" p="-0.8870686292648317" q="-0.0">
                <iidm:reactiveCapabilityCurve>
                    <iidm:point p="0.0" minQ="0.0" maxQ="0.0"/>
                    <iidm:point p="6.823605060577393" minQ="0.0" maxQ="0.0"/>
                </iidm:reactiveCapabilityCurve>
            </iidm:generator>
            <iidm:load id="ALLAI3311" loadType="UNDEFINED" p0="5.099992887106411" q0="-6.299982853325208" bus="ALLAIP31" connectableBus="ALLAIP31" p="5.099992887106411" q="-6.299982853325208">
                <iidm:property name="VECTCodeOITransfoDistrib" value="ALLAI-Y311"/>
            </iidm:load>
        </iidm:voltageLevel>
    </iidm:substation>
    <iidm:substation id="AMBON" country="FR" tso="RTE">
        <iidm:voltageLevel id="AMBONP3" nominalV="63.0" topologyKind="BUS_BREAKER">
            <iidm:busBreakerTopology>
                <iidm:bus id="AMBONP31" v="65.55757896446346" angle="-1.6956661919373872"/>
            </iidm:busBreakerTopology>
            <iidm:generator id="AMBONP3_EOL" energySource="SOLAR" minP="0.0" maxP="45.04446792602539" voltageRegulatorOn="false" targetP="6.756669998168945" targetQ="0.0" bus="AMBONP31" connectableBus="AMBONP31" p="-6.756669998168946" q="-0.0">
                <iidm:reactiveCapabilityCurve>
                    <iidm:point p="0.0" minQ="0.0" maxQ="0.0"/>
                    <iidm:point p="45.04446792602539" minQ="0.0" maxQ="0.0"/>
                </iidm:reactiveCapabilityCurve>
            </iidm:generator>
            <iidm:generator id="AMBONP3_PV" energySource="SOLAR" minP="0.0" maxP="32.59975051879883" voltageRegulatorOn="false" targetP="4.237967491149902" targetQ="0.0" bus="AMBONP31" connectableBus="AMBONP31" p="-4.237967491149902" q="-0.0">
                <iidm:reactiveCapabilityCurve>
                    <iidm:point p="0.0" minQ="0.0" maxQ="0.0"/>
                    <iidm:point p="32.59975051879883" minQ="0.0" maxQ="0.0"/>
                </iidm:reactiveCapabilityCurve>
            </iidm:generator>
            <iidm:load id="merged_load_AMBONP31_1" loadType="UNDEFINED" p0="6.399990738024284" q0="-10.399969207183362" bus="AMBONP31" connectableBus="AMBONP31" p="6.399990738024284" q="-10.399969207183362"/>
        </iidm:voltageLevel>
    </iidm:substation>
    <iidm:substation id="AUDIE" country="FR" tso="RTE">
        <iidm:voltageLevel id="AUDIEP3" nominalV="63.0" topologyKind="BUS_BREAKER">
            <iidm:busBreakerTopology>
                <iidm:bus id="AUDIEP31" v="67.51122549552761" angle="-1.560640416568424"/>
                <iidm:bus id="AUDIEP32" v="67.64967133943863" angle="-1.3108603195788486"/>
            </iidm:busBreakerTopology>
            <iidm:generator id="AUDIEP3_EOL" energySource="SOLAR" minP="0.0" maxP="11.423148155212402" voltageRegulatorOn="false" targetP="1.7134722471237183" targetQ="0.0" bus="AUDIEP32" connectableBus="AUDIEP32" p="-1.7134722471237183" q="-0.0">
                <iidm:reactiveCapabilityCurve>
                    <iidm:point p="0.0" minQ="0.0" maxQ="0.0"/>
                    <iidm:point p="11.423148155212402" minQ="0.0" maxQ="0.0"/>
                </iidm:reactiveCapabilityCurve>
            </iidm:generator>
            <iidm:generator id="AUDIEP3_PV" energySource="SOLAR" minP="0.0" maxP="9.15846061706543" voltageRegulatorOn="false" targetP="1.1905999183654785" targetQ="0.0" bus="AUDIEP32" connectableBus="AUDIEP32" p="-1.1905999183654785" q="-0.0">
                <iidm:reactiveCapabilityCurve>
                    <iidm:point p="0.0" minQ="0.0" maxQ="0.0"/>
                    <iidm:point p="9.15846061706543" minQ="0.0" maxQ="0.0"/>
                </iidm:reactiveCapabilityCurve>
            </iidm:generator>
            <iidm:load id="AUDIE3311" loadType="UNDEFINED" p0="2.4999959690372062" q0="-5.499982263775115" bus="AUDIEP31" connectableBus="AUDIEP31" p="2.4999959690372062" q="-5.499982263775115">
                <iidm:property name="VECTCodeOITransfoDistrib" value="AUDIE-Y311"/>
            </iidm:load>
            <iidm:load id="AUDIE3312" loadType="UNDEFINED" p0="2.4999959815966055" q0="-5.499982319036398" bus="AUDIEP32" connectableBus="AUDIEP32" p="2.4999959815966055" q="-5.499982319036398">
                <iidm:property name="VECTCodeOITransfoDistrib" value="PALEN-Y312"/>
            </iidm:load>
        </iidm:voltageLevel>
    </iidm:substation>
    <iidm:substation id="AURAY" country="FR" tso="RTE">
        <iidm:voltageLevel id="AURAYP3" nominalV="63.0" topologyKind="BUS_BREAKER">
            <iidm:busBreakerTopology>
                <iidm:bus id="AURAYP31" v="64.93705510888977" angle="-2.4498636126970337"/>
            </iidm:busBreakerTopology>
            <iidm:generator id="AURAYP3_EOL" energySource="SOLAR" minP="0.0" maxP="1.184723973274231" voltageRegulatorOn="false" targetP="0.17770859599113464" targetQ="0.0" bus="AURAYP31" connectableBus="AURAYP31" p="-0.17770859599113464" q="-0.0">
                <iidm:reactiveCapabilityCurve>
                    <iidm:point p="0.0" minQ="0.0" maxQ="0.0"/>
                    <iidm:point p="1.184723973274231" minQ="0.0" maxQ="0.0"/>
                </iidm:reactiveCapabilityCurve>
            </iidm:generator>
            <iidm:generator id="AURAYP3_PV" energySource="SOLAR" minP="0.0" maxP="5.850788116455078" voltageRegulatorOn="false" targetP="0.7606024742126465" targetQ="0.0" bus="AURAYP31" connectableBus="AURAYP31" p="-0.7606024742126465" q="-0.0">
                <iidm:reactiveCapabilityCurve>
                    <iidm:point p="0.0" minQ="0.0" maxQ="0.0"/>
                    <iidm:point p="5.850788116455078" minQ="0.0" maxQ="0.0"/>
                </iidm:reactiveCapabilityCurve>
            </iidm:generator>
            <iidm:load id="merged_load_AURAYP31_1" loadType="UNDEFINED" p0="13.299979539198297" q0="-14.299955305358358" bus="AURAYP31" connectableBus="AURAYP31" p="13.299979539198297" q="-14.299955305358358"/>
            <iidm:shunt id="AURAY3COND.11" bPerSection="0.0037792895454913378" maximumSectionCount="1" currentSectionCount="1" connectableBus="AURAYP31">
                <iidm:property name="VECTCodeOITransfoDistrib" value="CONF6-Y413"/>
            </iidm:shunt>
        </iidm:voltageLevel>
    </iidm:substation>
    <iidm:substation id="B.EPI" country="FR" tso="RTE">
        <iidm:voltageLevel id="B.EPIP4" nominalV="90.0" topologyKind="BUS_BREAKER">
            <iidm:busBreakerTopology>
                <iidm:bus id="B.EPIP41" v="93.92288205687275" angle="-3.7449696838781095"/>
            </iidm:busBreakerTopology>
            <iidm:shunt id="B.EPI4COND.11" bPerSection="0.004197530914098024" maximumSectionCount="1" currentSectionCount="1" bus="B.EPIP41" connectableBus="B.EPIP41" q="-37.028551589772135"/>
        </iidm:voltageLevel>
        <iidm:voltageLevel id="B.EPIP6" nominalV="225.0" topologyKind="BUS_BREAKER">
            <iidm:busBreakerTopology>
                <iidm:bus id="B.EPIP61" v="240.55299869425892" angle="-2.6487817772276476"/>
            </iidm:busBreakerTopology>
            <iidm:shunt id="B.EPI6COND.11" bPerSection="0.0015802469570189714" maximumSectionCount="1" currentSectionCount="1" connectableBus="B.EPIP61">
                <iidm:property name="VECTCodeOITransfoDistrib" value="CRAON-Y411"/>
            </iidm:shunt>
        </iidm:voltageLevel>
        <iidm:twoWindingsTransformer id="B.EPIY641" r="0.30239999294281006" x="9.743999481201172" g="0.0" b="0.0" ratedU1="225.0" ratedU2="90.0" voltageLevelId1="B.EPIP6" bus1="B.EPIP61" connectableBus1="B.EPIP61" voltageLevelId2="B.EPIP4" bus2="B.EPIP41" connectableBus2="B.EPIP41" p1="15.306429110963277" q1="-39.5430974080039" p2="-15.238795669332534" q2="41.7223971287096">
            <iidm:ratioTapChanger regulating="true" lowTapPosition="0" tapPosition="15" loadTapChangingCapabilities="true" targetV="94.50000762939453">
                <iidm:terminalRef id="B.EPIY641" side="TWO"/>
                <iidm:step r="0.0" x="0.0" g="0.0" b="0.0" rho="1.1119999885559082"/>
                <iidm:step r="0.0" x="0.0" g="0.0" b="0.0" rho="1.0999799966812134"/>
                <iidm:step r="0.0" x="0.0" g="0.0" b="0.0" rho="1.0879600048065186"/>
                <iidm:step r="0.0" x="0.0" g="0.0" b="0.0" rho="1.0759400129318237"/>
                <iidm:step r="0.0" x="0.0" g="0.0" b="0.0" rho="1.0639100074768066"/>
                <iidm:step r="0.0" x="0.0" g="0.0" b="0.0" rho="1.0518900156021118"/>
                <iidm:step r="0.0" x="0.0" g="0.0" b="0.0" rho="1.039870023727417"/>
                <iidm:step r="0.0" x="0.0" g="0.0" b="0.0" rho="1.0278500318527222"/>
                <iidm:step r="0.0" x="0.0" g="0.0" b="0.0" rho="1.0158300399780273"/>
                <iidm:step r="0.0" x="0.0" g="0.0" b="0.0" rho="1.0038100481033325"/>
                <iidm:step r="0.0" x="0.0" g="0.0" b="0.0" rho="0.9917799830436707"/>
                <iidm:step r="0.0" x="0.0" g="0.0" b="0.0" rho="0.9797599911689758"/>
                <iidm:step r="0.0" x="0.0" g="0.0" b="0.0" rho="0.967739999294281"/>
                <iidm:step r="0.0" x="0.0" g="0.0" b="0.0" rho="0.9557600021362305"/>
                <iidm:step r="0.0" x="0.0" g="0.0" b="0.0" rho="0.9437800049781799"/>
                <iidm:step r="0.0" x="0.0" g="0.0" b="0.0" rho="0.9318100214004517"/>
                <iidm:step r="0.0" x="0.0" g="0.0" b="0.0" rho="0.9198300242424011"/>
                <iidm:step r="0.0" x="0.0" g="0.0" b="0.0" rho="0.9078500270843506"/>
                <iidm:step r="0.0" x="0.0" g="0.0" b="0.0" rho="0.8958699703216553"/>
                <iidm:step r="0.0" x="0.0" g="0.0" b="0.0" rho="0.8838899731636047"/>
                <iidm:step r="0.0" x="0.0" g="0.0" b="0.0" rho="0.8719099760055542"/>
                <iidm:step r="0.0" x="0.0" g="0.0" b="0.0" rho="0.8599399924278259"/>
                <iidm:step r="0.0" x="0.0" g="0.0" b="0.0" rho="0.8479599952697754"/>
                <iidm:step r="0.0" x="0.0" g="0.0" b="0.0" rho="0.8359799981117249"/>
                <iidm:step r="0.0" x="0.0" g="0.0" b="0.0" rho="0.8240000009536743"/>
            </iidm:ratioTapChanger>
        </iidm:twoWindingsTransformer>
        <iidm:twoWindingsTransformer id="B.EPIY642" r="0.24960000813007355" x="9.472000122070312" g="0.0" b="0.0" ratedU1="225.0" ratedU2="90.0" voltageLevelId1="B.EPIP6" bus1="B.EPIP61" connectableBus1="B.EPIP61" voltageLevelId2="B.EPIP4" bus2="B.EPIP41" connectableBus2="B.EPIP41" p1="15.938283770264224" q1="-40.60995010292534" p2="-15.879191314525553" q2="42.85243299450451">
            <iidm:ratioTapChanger regulating="true" lowTapPosition="0" tapPosition="15" loadTapChangingCapabilities="true" targetV="94.50000762939453">
                <iidm:terminalRef id="B.EPIY642" side="TWO"/>
                <iidm:step r="0.0" x="0.0" g="0.0" b="0.0" rho="1.1119999885559082"/>
                <iidm:step r="0.0" x="0.0" g="0.0" b="0.0" rho="1.0999799966812134"/>
                <iidm:step r="0.0" x="0.0" g="0.0" b="0.0" rho="1.0879600048065186"/>
                <iidm:step r="0.0" x="0.0" g="0.0" b="0.0" rho="1.0759400129318237"/>
                <iidm:step r="0.0" x="0.0" g="0.0" b="0.0" rho="1.0639100074768066"/>
                <iidm:step r="0.0" x="0.0" g="0.0" b="0.0" rho="1.0518900156021118"/>
                <iidm:step r="0.0" x="0.0" g="0.0" b="0.0" rho="1.039870023727417"/>
                <iidm:step r="0.0" x="0.0" g="0.0" b="0.0" rho="1.0278500318527222"/>
                <iidm:step r="0.0" x="0.0" g="0.0" b="0.0" rho="1.0158300399780273"/>
                <iidm:step r="0.0" x="0.0" g="0.0" b="0.0" rho="1.0038100481033325"/>
                <iidm:step r="0.0" x="0.0" g="0.0" b="0.0" rho="0.9917799830436707"/>
                <iidm:step r="0.0" x="0.0" g="0.0" b="0.0" rho="0.9797599911689758"/>
                <iidm:step r="0.0" x="0.0" g="0.0" b="0.0" rho="0.967739999294281"/>
                <iidm:step r="0.0" x="0.0" g="0.0" b="0.0" rho="0.9557600021362305"/>
                <iidm:step r="0.0" x="0.0" g="0.0" b="0.0" rho="0.9437800049781799"/>
                <iidm:step r="0.0" x="0.0" g="0.0" b="0.0" rho="0.9318100214004517"/>
                <iidm:step r="0.0" x="0.0" g="0.0" b="0.0" rho="0.9198300242424011"/>
                <iidm:step r="0.0" x="0.0" g="0.0" b="0.0" rho="0.9078500270843506"/>
                <iidm:step r="0.0" x="0.0" g="0.0" b="0.0" rho="0.8958699703216553"/>
                <iidm:step r="0.0" x="0.0" g="0.0" b="0.0" rho="0.8838899731636047"/>
                <iidm:step r="0.0" x="0.0" g="0.0" b="0.0" rho="0.8719099760055542"/>
                <iidm:step r="0.0" x="0.0" g="0.0" b="0.0" rho="0.8599399924278259"/>
                <iidm:step r="0.0" x="0.0" g="0.0" b="0.0" rho="0.8479599952697754"/>
                <iidm:step r="0.0" x="0.0" g="0.0" b="0.0" rho="0.8359799981117249"/>
                <iidm:step r="0.0" x="0.0" g="0.0" b="0.0" rho="0.8240000009536743"/>
            </iidm:ratioTapChanger>
        </iidm:twoWindingsTransformer>
        <iidm:twoWindingsTransformer id="B.EPIY643" r="0.29280000925064087" x="10.015999794006348" g="0.0" b="0.0" ratedU1="225.0" ratedU2="90.0" voltageLevelId1="B.EPIP6" bus1="B.EPIP61" connectableBus1="B.EPIP61" voltageLevelId2="B.EPIP4" bus2="B.EPIP41" connectableBus2="B.EPIP41" p1="14.960776011328708" q1="-38.44446683779706" p2="-14.898791413073296" q2="40.564814186643346">
            <iidm:ratioTapChanger regulating="true" lowTapPosition="0" tapPosition="15" loadTapChangingCapabilities="true" targetV="94.50000762939453">
                <iidm:terminalRef id="B.EPIY643" side="TWO"/>
                <iidm:step r="0.0" x="0.0" g="0.0" b="0.0" rho="1.1119999885559082"/>
                <iidm:step r="0.0" x="0.0" g="0.0" b="0.0" rho="1.0999799966812134"/>
                <iidm:step r="0.0" x="0.0" g="0.0" b="0.0" rho="1.0879600048065186"/>
                <iidm:step r="0.0" x="0.0" g="0.0" b="0.0" rho="1.0759400129318237"/>
                <iidm:step r="0.0" x="0.0" g="0.0" b="0.0" rho="1.0639100074768066"/>
                <iidm:step r="0.0" x="0.0" g="0.0" b="0.0" rho="1.0518900156021118"/>
                <iidm:step r="0.0" x="0.0" g="0.0" b="0.0" rho="1.039870023727417"/>
                <iidm:step r="0.0" x="0.0" g="0.0" b="0.0" rho="1.0278500318527222"/>
                <iidm:step r="0.0" x="0.0" g="0.0" b="0.0" rho="1.0158300399780273"/>
                <iidm:step r="0.0" x="0.0" g="0.0" b="0.0" rho="1.0038100481033325"/>
                <iidm:step r="0.0" x="0.0" g="0.0" b="0.0" rho="0.9917799830436707"/>
                <iidm:step r="0.0" x="0.0" g="0.0" b="0.0" rho="0.9797599911689758"/>
                <iidm:step r="0.0" x="0.0" g="0.0" b="0.0" rho="0.967739999294281"/>
                <iidm:step r="0.0" x="0.0" g="0.0" b="0.0" rho="0.9557600021362305"/>
                <iidm:step r="0.0" x="0.0" g="0.0" b="0.0" rho="0.9437800049781799"/>
                <iidm:step r="0.0" x="0.0" g="0.0" b="0.0" rho="0.9318100214004517"/>
                <iidm:step r="0.0" x="0.0" g="0.0" b="0.0" rho="0.9198300242424011"/>
                <iidm:step r="0.0" x="0.0" g="0.0" b="0.0" rho="0.9078500270843506"/>
                <iidm:step r="0.0" x="0.0" g="0.0" b="0.0" rho="0.8958699703216553"/>
                <iidm:step r="0.0" x="0.0" g="0.0" b="0.0" rho="0.8838899731636047"/>
                <iidm:step r="0.0" x="0.0" g="0.0" b="0.0" rho="0.8719099760055542"/>
                <iidm:step r="0.0" x="0.0" g="0.0" b="0.0" rho="0.8599399924278259"/>
                <iidm:step r="0.0" x="0.0" g="0.0" b="0.0" rho="0.8479599952697754"/>
                <iidm:step r="0.0" x="0.0" g="0.0" b="0.0" rho="0.8359799981117249"/>
                <iidm:step r="0.0" x="0.0" g="0.0" b="0.0" rho="0.8240000009536743"/>
            </iidm:ratioTapChanger>
        </iidm:twoWindingsTransformer>
    </iidm:substation>
    <iidm:substation id="B.GUE" country="FR" tso="RTE">
        <iidm:voltageLevel id="B.GUEP6" nominalV="225.0" topologyKind="BUS_BREAKER">
            <iidm:busBreakerTopology>
                <iidm:bus id="B.GUEP61" v="237.5190184067156" angle="-0.672182595808958"/>
                <iidm:bus id="B.GUEP62" v="237.5190184067156" angle="-0.672182595808958"/>
            </iidm:busBreakerTopology>
            <iidm:generator id="B.GUE.TG1" energySource="WIND" minP="5.0" maxP="240.0" voltageRegulatorOn="true" targetP="48.0" targetV="235.0" bus="B.GUEP61" connectableBus="B.GUEP61" p="-48.0" q="87.5">
                <iidm:reactiveCapabilityCurve>
                    <iidm:point p="5.0" minQ="-87.5" maxQ="80.0"/>
                    <iidm:point p="240.0" minQ="-87.5" maxQ="80.0"/>
                </iidm:reactiveCapabilityCurve>
            </iidm:generator>
            <iidm:generator id="B.GUE.TG2" energySource="WIND" minP="5.0" maxP="240.0" voltageRegulatorOn="true" targetP="48.0" targetV="235.0" bus="B.GUEP62" connectableBus="B.GUEP62" p="-48.0" q="87.5">
                <iidm:reactiveCapabilityCurve>
                    <iidm:point p="5.0" minQ="-87.5" maxQ="80.0"/>
                    <iidm:point p="240.0" minQ="-87.5" maxQ="80.0"/>
                </iidm:reactiveCapabilityCurve>
            </iidm:generator>
        </iidm:voltageLevel>
    </iidm:substation>
    <iidm:substation id="B.SEP" country="FR" tso="RTE">
        <iidm:voltageLevel id="B.SEPP3" nominalV="63.0" topologyKind="BUS_BREAKER">
            <iidm:busBreakerTopology>
                <iidm:bus id="B.SEPP31" v="64.34768433963465" angle="1.2933150108734266"/>
            </iidm:busBreakerTopology>
            <iidm:load id="B.SEP3TR312" loadType="UNDEFINED" p0="0.0" q0="0.0" bus="B.SEPP31" connectableBus="B.SEPP31" p="0.0" q="0.0">
                <iidm:property name="VECTCodeOITransfoDistrib" value="CZEGE-Y312"/>
            </iidm:load>
        </iidm:voltageLevel>
    </iidm:substation>
    <iidm:substation id="B.SSBP6_site" name="undefined" country="FR" tso="RTE">
        <iidm:voltageLevel id="B.SSBP6" nominalV="225.0" topologyKind="BUS_BREAKER">
            <iidm:busBreakerTopology>
                <iidm:bus id="B.SSBP61" v="235.00000000000003" angle="-3.776903527061622"/>
            </iidm:busBreakerTopology>
            <iidm:generator id="B.SSBEA1" energySource="WIND" minP="0.0" maxP="263.0" voltageRegulatorOn="true" targetP="52.599998474121094" targetV="235.0" bus="B.SSBP61" connectableBus="B.SSBP61" p="-52.599998474121094" q="21.167516338979624">
                <iidm:reactiveCapabilityCurve>
                    <iidm:point p="0.0" minQ="-70.0" maxQ="75.0"/>
                    <iidm:point p="263.0" minQ="-87.5" maxQ="80.0"/>
                </iidm:reactiveCapabilityCurve>
            </iidm:generator>
            <iidm:generator id="B.SSBEA2" energySource="WIND" minP="0.0" maxP="263.0" voltageRegulatorOn="true" targetP="52.599998474121094" targetV="235.0" bus="B.SSBP61" connectableBus="B.SSBP61" p="-52.599998474121094" q="21.167516338979624">
                <iidm:reactiveCapabilityCurve>
                    <iidm:point p="0.0" minQ="-70.0" maxQ="75.0"/>
                    <iidm:point p="263.0" minQ="-87.5" maxQ="80.0"/>
                </iidm:reactiveCapabilityCurve>
            </iidm:generator>
        </iidm:voltageLevel>
    </iidm:substation>
    <iidm:substation id="B.THO" country="FR" tso="RTE">
        <iidm:voltageLevel id="B.THOP4" nominalV="90.0" topologyKind="BUS_BREAKER">
            <iidm:busBreakerTopology>
                <iidm:bus id="B.THOP41" v="93.95303075781271" angle="-3.7925770039033453"/>
            </iidm:busBreakerTopology>
            <iidm:load id="merged_load_B.THOP41_1" loadType="UNDEFINED" p0="8.599988460802553" q0="-7.599978835559301" bus="B.THOP41" connectableBus="B.THOP41" p="8.599988460802553" q="-7.599978835559301"/>
        </iidm:voltageLevel>
    </iidm:substation>
    <iidm:substation id="BANNA" country="FR" tso="RTE">
        <iidm:voltageLevel id="BANNAP3" nominalV="63.0" topologyKind="BUS_BREAKER">
            <iidm:busBreakerTopology>
                <iidm:bus id="BANNAP31" v="65.0875304825623" angle="-0.47292519283260775"/>
            </iidm:busBreakerTopology>
            <iidm:generator id="BANNAP3_EOL" energySource="SOLAR" minP="0.0" maxP="2.2933969497680664" voltageRegulatorOn="false" targetP="0.34400954842567444" targetQ="0.0" bus="BANNAP31" connectableBus="BANNAP31" p="-0.34400954842567444" q="-0.0">
                <iidm:reactiveCapabilityCurve>
                    <iidm:point p="0.0" minQ="0.0" maxQ="0.0"/>
                    <iidm:point p="2.2933969497680664" minQ="0.0" maxQ="0.0"/>
                </iidm:reactiveCapabilityCurve>
            </iidm:generator>
            <iidm:generator id="BANNAP3_PV" energySource="SOLAR" minP="0.0" maxP="5.468367099761963" voltageRegulatorOn="false" targetP="0.7108877301216125" targetQ="0.0" bus="BANNAP31" connectableBus="BANNAP31" p="-0.7108877301216125" q="-0.0">
                <iidm:reactiveCapabilityCurve>
                    <iidm:point p="0.0" minQ="0.0" maxQ="0.0"/>
                    <iidm:point p="5.468367099761963" minQ="0.0" maxQ="0.0"/>
                </iidm:reactiveCapabilityCurve>
            </iidm:generator>
            <iidm:load id="BANNA3311" loadType="UNDEFINED" p0="2.199996517981783" q0="-6.499979142684083" bus="BANNAP31" connectableBus="BANNAP31" p="2.199996517981783" q="-6.499979142684083">
                <iidm:property name="VECTCodeOITransfoDistrib" value="MRNIE-Y312"/>
            </iidm:load>
        </iidm:voltageLevel>
    </iidm:substation>
    <iidm:substation id="BAUD" country="FR" tso="RTE">
        <iidm:voltageLevel id="BAUD P3" nominalV="63.0" topologyKind="BUS_BREAKER">
            <iidm:busBreakerTopology>
                <iidm:bus id="BAUD P31" v="66.74684738114021" angle="-1.2049760227145234"/>
            </iidm:busBreakerTopology>
            <iidm:generator id="BAUD P3_HY_ES" energySource="HYDRO" minP="0.0" maxP="1.0" voltageRegulatorOn="false" targetP="0.0" targetQ="0.0" bus="BAUD P31" connectableBus="BAUD P31" p="-0.0" q="-0.0">
                <iidm:reactiveCapabilityCurve>
                    <iidm:point p="0.0" minQ="-0.009999999776482582" maxQ="0.009999999776482582"/>
                    <iidm:point p="1.0" minQ="-0.009999999776482582" maxQ="0.009999999776482582"/>
                </iidm:reactiveCapabilityCurve>
            </iidm:generator>
            <iidm:generator id="BAUD P3_EOL" energySource="SOLAR" minP="0.0" maxP="2.9240000247955322" voltageRegulatorOn="false" targetP="0.43860000371932983" targetQ="0.0" bus="BAUD P31" connectableBus="BAUD P31" p="-0.43860000371932983" q="-0.0">
                <iidm:reactiveCapabilityCurve>
                    <iidm:point p="0.0" minQ="0.0" maxQ="0.0"/>
                    <iidm:point p="2.9240000247955322" minQ="0.0" maxQ="0.0"/>
                </iidm:reactiveCapabilityCurve>
            </iidm:generator>
            <iidm:generator id="BAUD P3_PV" energySource="SOLAR" minP="0.0" maxP="16.09640121459961" voltageRegulatorOn="false" targetP="2.092532157897949" targetQ="0.0" bus="BAUD P31" connectableBus="BAUD P31" p="-2.092532157897949" q="-0.0">
                <iidm:reactiveCapabilityCurve>
                    <iidm:point p="0.0" minQ="0.0" maxQ="0.0"/>
                    <iidm:point p="16.09640121459961" minQ="0.0" maxQ="0.0"/>
                </iidm:reactiveCapabilityCurve>
            </iidm:generator>
            <iidm:load id="merged_load_BAUD P31_1" loadType="UNDEFINED" p0="7.999983445262221" q0="-9.199961733402601" bus="BAUD P31" connectableBus="BAUD P31" p="7.999983445262221" q="-9.199961733402601"/>
        </iidm:voltageLevel>
    </iidm:substation>
    <iidm:substation id="BAULE" country="FR" tso="RTE">
        <iidm:voltageLevel id="BAULEP3" nominalV="63.0" topologyKind="BUS_BREAKER">
            <iidm:busBreakerTopology>
                <iidm:bus id="BAULEP31" v="64.42288079701204" angle="-4.670510833554256"/>
            </iidm:busBreakerTopology>
            <iidm:generator id="BAULEP3_EOL" energySource="SOLAR" minP="0.0" maxP="5.899147987365723" voltageRegulatorOn="false" targetP="0.8848721981048584" targetQ="0.0" bus="BAULEP31" connectableBus="BAULEP31" p="-0.8848721981048585" q="-0.0">
                <iidm:reactiveCapabilityCurve>
                    <iidm:point p="0.0" minQ="0.0" maxQ="0.0"/>
                    <iidm:point p="5.899147987365723" minQ="0.0" maxQ="0.0"/>
                </iidm:reactiveCapabilityCurve>
            </iidm:generator>
            <iidm:generator id="BAULEP3_PV" energySource="SOLAR" minP="0.0" maxP="7.808133125305176" voltageRegulatorOn="false" targetP="1.0150573253631592" targetQ="0.0" bus="BAULEP31" connectableBus="BAULEP31" p="-1.0150573253631592" q="-0.0">
                <iidm:reactiveCapabilityCurve>
                    <iidm:point p="0.0" minQ="0.0" maxQ="0.0"/>
                    <iidm:point p="7.808133125305176" minQ="0.0" maxQ="0.0"/>
                </iidm:reactiveCapabilityCurve>
            </iidm:generator>
            <iidm:load id="merged_load_BAULEP31_1" loadType="UNDEFINED" p0="16.299973676417757" q0="-1.1999961139353736" bus="BAULEP31" connectableBus="BAULEP31" p="16.299973676417757" q="-1.1999961139353736"/>
        </iidm:voltageLevel>
    </iidm:substation>
    <iidm:substation id="BENOD" country="FR" tso="RTE">
        <iidm:voltageLevel id="BENODP3" nominalV="63.0" topologyKind="BUS_BREAKER">
            <iidm:busBreakerTopology>
                <iidm:bus id="BENODP31" v="64.82620918327515" angle="-0.6632566118272373"/>
            </iidm:busBreakerTopology>
            <iidm:generator id="BENODP3_EOL" energySource="SOLAR" minP="0.0" maxP="1.6302460432052612" voltageRegulatorOn="false" targetP="0.24453690648078918" targetQ="0.0" bus="BENODP31" connectableBus="BENODP31" p="-0.24453690648078918" q="-0.0">
                <iidm:reactiveCapabilityCurve>
                    <iidm:point p="0.0" minQ="0.0" maxQ="0.0"/>
                    <iidm:point p="1.6302460432052612" minQ="0.0" maxQ="0.0"/>
                </iidm:reactiveCapabilityCurve>
            </iidm:generator>
            <iidm:generator id="BENODP3_PV" energySource="SOLAR" minP="0.0" maxP="7.874374866485596" voltageRegulatorOn="false" targetP="1.0236687660217285" targetQ="0.0" bus="BENODP31" connectableBus="BENODP31" p="-1.0236687660217285" q="-0.0">
                <iidm:reactiveCapabilityCurve>
                    <iidm:point p="0.0" minQ="0.0" maxQ="0.0"/>
                    <iidm:point p="7.874374866485596" minQ="0.0" maxQ="0.0"/>
                </iidm:reactiveCapabilityCurve>
            </iidm:generator>
            <iidm:load id="merged_load_BENODP31_1" loadType="UNDEFINED" p0="9.39998450261514" q0="-10.399966170569005" bus="BENODP31" connectableBus="BENODP31" p="9.39998450261514" q="-10.399966170569005"/>
        </iidm:voltageLevel>
    </iidm:substation>
    <iidm:substation id="BERNO" country="FR" tso="RTE">
        <iidm:voltageLevel id="BERNOP3" nominalV="63.0" topologyKind="BUS_BREAKER">
            <iidm:busBreakerTopology>
                <iidm:bus id="BERNOP31" v="64.16765878835733" angle="-2.2901322699809072"/>
            </iidm:busBreakerTopology>
            <iidm:load id="merged_load_BERNOP31_1" loadType="UNDEFINED" p0="1.199998308240819" q0="0.23999929885888502" bus="BERNOP31" connectableBus="BERNOP31" p="1.199998308240819" q="0.23999929885888502"/>
        </iidm:voltageLevel>
    </iidm:substation>
    <iidm:substation id="BEZON" country="FR" tso="RTE">
        <iidm:voltageLevel id="BEZONP3" nominalV="63.0" topologyKind="BUS_BREAKER">
            <iidm:busBreakerTopology>
                <iidm:bus id="BEZONP31" v="64.39978619526049" angle="0.6113033794640076"/>
            </iidm:busBreakerTopology>
            <iidm:shunt id="BEZON3COND.11" bPerSection="0.005039052106440067" maximumSectionCount="1" currentSectionCount="1" connectableBus="BEZONP31"/>
            <iidm:shunt id="BEZON3COND.21" bPerSection="0.0075585790909826756" maximumSectionCount="1" currentSectionCount="1" connectableBus="BEZONP31">
                <iidm:property name="VECTCodeOITransfoDistrib" value="CREDI-Y311"/>
            </iidm:shunt>
            <iidm:shunt id="BEZON3COND.31" bPerSection="0.0075585790909826756" maximumSectionCount="1" currentSectionCount="1" connectableBus="BEZONP31"/>
        </iidm:voltageLevel>
        <iidm:voltageLevel id="BEZONP6" nominalV="225.0" topologyKind="BUS_BREAKER">
            <iidm:busBreakerTopology>
                <iidm:bus id="BEZONP61" v="238.13778210614328" angle="-0.12514991528779895"/>
            </iidm:busBreakerTopology>
            <iidm:shunt id="BEZON-MC361" bPerSection="-0.0015802469570189714" maximumSectionCount="1" currentSectionCount="1" bus="BEZONP61" connectableBus="BEZONP61" q="89.61517799553383"/>
        </iidm:voltageLevel>
        <iidm:twoWindingsTransformer id="BEZONY632" r="0.9799999594688416" x="58.79999923706055" g="0.0" b="0.0" ratedU1="63.0" ratedU2="225.0" voltageLevelId1="BEZONP3" bus1="BEZONP31" connectableBus1="BEZONP31" voltageLevelId2="BEZONP6" bus2="BEZONP61" connectableBus2="BEZONP61" p1="13.432238226210485" q1="35.57018407231611" p2="-13.408950517968101" q2="-34.17292153810906">
            <iidm:ratioTapChanger regulating="true" lowTapPosition="0" tapPosition="0" loadTapChangingCapabilities="true" targetV="64.5">
                <iidm:terminalRef id="BEZONY632" side="ONE"/>
                <iidm:step r="0.0" x="0.0" g="0.0" b="0.0" rho="1.0723999738693237"/>
                <iidm:step r="0.0" x="0.0" g="0.0" b="0.0" rho="1.0608099699020386"/>
                <iidm:step r="0.0" x="0.0" g="0.0" b="0.0" rho="1.0492199659347534"/>
                <iidm:step r="0.0" x="0.0" g="0.0" b="0.0" rho="1.0376299619674683"/>
                <iidm:step r="0.0" x="0.0" g="0.0" b="0.0" rho="1.026039958000183"/>
                <iidm:step r="0.0" x="0.0" g="0.0" b="0.0" rho="1.0144599676132202"/>
                <iidm:step r="0.0" x="0.0" g="0.0" b="0.0" rho="1.002869963645935"/>
                <iidm:step r="0.0" x="0.0" g="0.0" b="0.0" rho="0.9912800192832947"/>
                <iidm:step r="0.0" x="0.0" g="0.0" b="0.0" rho="0.9796900153160095"/>
                <iidm:step r="0.0" x="0.0" g="0.0" b="0.0" rho="0.9681000113487244"/>
                <iidm:step r="0.0" x="0.0" g="0.0" b="0.0" rho="0.9565100073814392"/>
                <iidm:step r="0.0" x="0.0" g="0.0" b="0.0" rho="0.944920003414154"/>
                <iidm:step r="0.0" x="0.0" g="0.0" b="0.0" rho="0.9333299994468689"/>
                <iidm:step r="0.0" x="0.0" g="0.0" b="0.0" rho="0.9215899705886841"/>
                <iidm:step r="0.0" x="0.0" g="0.0" b="0.0" rho="0.9098399877548218"/>
                <iidm:step r="0.0" x="0.0" g="0.0" b="0.0" rho="0.8981000185012817"/>
...